Input Parameters:
   integrator           = sd
   nsteps               = -1
   init_step            = 0
   ns_type              = Simple
   nstlist              = 0
   ndelta               = 2
   nstcomm              = 20
   comm_mode            = Angular
   nstlog               = 500000
   nstxout              = 100
   nstvout              = 100
   nstfout              = 100
   nstcalcenergy        = 10
   nstenergy            = 500000
   nstxtcout            = 0
   init_t               = 0
   delta_t              = 0.002
   xtcprec              = 1000
   nkx                  = 0
   nky                  = 0
   nkz                  = 0
   pme_order            = 4
   ewald_rtol           = 1e-05
   ewald_geometry       = 0
   epsilon_surface      = 0
   optimize_fft         = FALSE
   ePBC                 = no
   bPeriodicMols        = FALSE
   bContinuation        = FALSE
   bShakeSOR            = FALSE
   etc                  = No
   nsttcouple           = -1
   epc                  = No
   epctype              = Isotropic
   nstpcouple           = -1
   tau_p                = 1
   ref_p (3x3):
      ref_p[    0]={ 0.00000e+00,  0.00000e+00,  0.00000e+00}
      ref_p[    1]={ 0.00000e+00,  0.00000e+00,  0.00000e+00}
      ref_p[    2]={ 0.00000e+00,  0.00000e+00,  0.00000e+00}
   compress (3x3):
      compress[    0]={ 0.00000e+00,  0.00000e+00,  0.00000e+00}
      compress[    1]={ 0.00000e+00,  0.00000e+00,  0.00000e+00}
      compress[    2]={ 0.00000e+00,  0.00000e+00,  0.00000e+00}
   refcoord_scaling     = No
   posres_com (3):
      posres_com[0]= 0.00000e+00
      posres_com[1]= 0.00000e+00
      posres_com[2]= 0.00000e+00
   posres_comB (3):
      posres_comB[0]= 0.00000e+00
      posres_comB[1]= 0.00000e+00
      posres_comB[2]= 0.00000e+00
   andersen_seed        = 815131
   rlist                = 0
   rlistlong            = 0
   rtpi                 = 0.05
   coulombtype          = Cut-off
   rcoulomb_switch      = 0
   rcoulomb             = 0
   vdwtype              = Cut-off
   rvdw_switch          = 0
   rvdw                 = 0
   epsilon_r            = 1
   epsilon_rf           = inf
   tabext               = 1
   implicit_solvent     = GBSA
   gb_algorithm         = OBC
   gb_epsilon_solvent   = 78.3
   nstgbradii           = 1
   rgbradii             = 0
   gb_saltconc          = 0
   gb_obc_alpha         = 1
   gb_obc_beta          = 0.8
   gb_obc_gamma         = 4.85
   gb_dielectric_offset = 0.009
   sa_algorithm         = Still
   sa_surface_tension   = 2.25936
   DispCorr             = No
   free_energy          = no
   init_lambda          = 0
   delta_lambda         = 0
   n_foreign_lambda     = 0
   sc_alpha             = 0
   sc_power             = 0
   sc_sigma             = 0.3
   sc_sigma_min         = 0.3
   nstdhdl              = 10
   separate_dhdl_file   = yes
   dhdl_derivatives     = yes
   dh_hist_size         = 0
   dh_hist_spacing      = 0.1
   nwall                = 0
   wall_type            = 9-3
   wall_atomtype[0]     = -1
   wall_atomtype[1]     = -1
   wall_density[0]      = 0
   wall_density[1]      = 0
   wall_ewald_zfac      = 3
   pull                 = no
   disre                = No
   disre_weighting      = Conservative
   disre_mixed          = FALSE
   dr_fc                = 1000
   dr_tau               = 0
   nstdisreout          = 100
   orires_fc            = 0
   orires_tau           = 0
   nstorireout          = 100
   dihre-fc             = 1000
   em_stepsize          = 0.01
   em_tol               = 10
   niter                = 20
   fc_stepsize          = 0
   nstcgsteep           = 1000
   nbfgscorr            = 10
   ConstAlg             = Lincs
   shake_tol            = 0.0001
   lincs_order          = 4
   lincs_warnangle      = 30
   lincs_iter           = 1
   bd_fric              = 0
   ld_seed              = 42433
   cos_accel            = 0
   deform (3x3):
      deform[    0]={ 0.00000e+00,  0.00000e+00,  0.00000e+00}
      deform[    1]={ 0.00000e+00,  0.00000e+00,  0.00000e+00}
      deform[    2]={ 0.00000e+00,  0.00000e+00,  0.00000e+00}
   userint1             = 0
   userint2             = 0
   userint3             = 0
   userint4             = 0
   userreal1            = 0
   userreal2            = 0
   userreal3            = 0
   userreal4            = 0
grpopts:
   nrdf:        1377
   ref_t:         370
   tau_t:           1
anneal:          No
ann_npoints:           0
   acc:	           0           0           0
   nfreeze:           N           N           N
   energygrp_flags[  0]: 0
   efield-x:
      n = 0
   efield-xt:
      n = 0
   efield-y:
      n = 0
   efield-yt:
      n = 0
   efield-z:
      n = 0
   efield-zt:
      n = 0
   bQMMM                = FALSE
   QMconstraints        = 0
   QMMMscheme           = 0
   scalefactor          = 1
qm_opts:
   ngQM                 = 0

Using accelerated all-vs-all kernels.

Table routines are used for coulomb: FALSE
Table routines are used for vdw:     FALSE
Cut-off's:   NS: 1e+18   Coulomb: 1e+18   LJ: 1e+18
System total charge: 4.000
Generated table with 500 data points for 1-4 COUL.
Tabscale = 500 points/nm
Generated table with 500 data points for 1-4 LJ6.
Tabscale = 500 points/nm
Generated table with 500 data points for 1-4 LJ12.
Tabscale = 500 points/nm
Configuring nonbonded kernels...
Configuring standard C nonbonded kernels...
Testing x86_64 SSE2 support... present.

Initializing LINear Constraint Solver

The number of constraints is 270
Center of mass motion removal mode is Angular
We have the following groups for center of mass motion removal:
  0:  rest
There are: 551 Atoms
splitting topology...
There are 551 charge group borders and 551 shake borders.
There are 551 total borders
Division over nodes in atoms:
     138     138     138     137
CPU=  0, lastcg=  137, targetcg=  413, myshift=    2
CPU=  1, lastcg=  275, targetcg=    0, myshift=    3
CPU=  2, lastcg=  413, targetcg=  138, myshift=    2
CPU=  3, lastcg=  550, targetcg=  275, myshift=    2
pd->shift =   3, pd->bshift=  0
Division of bonded forces over processors
CPU              0     1     2     3
BONDS           71    68    77    75
ANGLES         269   250   244   240
PDIHS          522   476   502   468
PIDIHS          24    29    40    32
GB12           143   140   140   138
GB13           268   250   244   241
GB14           385   360   351   344
LJ14           385   360   351   344
CONSTR          72    72    66    63
Workload division
nnodes:           4
pd->shift:        3
pd->bshift:       0
Nodeid   atom0   #atom     cg0       #cg
     0       0     138       0       138
     1     138     138     138       138
     2     276     138     276       138
     3     414     137     414       137

Constraining the starting coordinates (step 0)

Constraining the coordinates at t0-dt (step 0)
RMS relative constraint deviation after constraining: 6.10e-06
Initial temperature: 378.71 K

Started mdrun on node 0 Tue Dec  3 12:28:51 2013

           Step           Time         Lambda
              0        0.00000        0.00000

   Energies (kJ/mol)
           Bond          Angle    Proper Dih.  Improper Dih.GB Polarization
    2.37538e+02    4.41858e+02    1.47158e+03    3.20410e+00   -3.05416e+03
    4.34358e+01    7.84794e+02    3.55391e+03   -1.65202e+02   -7.20433e+03
      Potential    Kinetic En.   Total Energy    Temperature Pressure (bar)
   -3.88738e+03    2.29527e+03   -1.59211e+03    4.00952e+02    0.00000e+00
    5.23179e-06    5.23933e-06

	<====  A V E R A G E S  ====>

	Statistics over 3722 steps using 374 frames

   Energies (kJ/mol)
           Bond          Angle    Proper Dih.  Improper Dih.GB Polarization
    3.53200e+02    8.84359e+02    1.03125e+03    4.77545e+01   -2.42774e+03
  Nonpolar Sol.          LJ-14     Coulomb-14        LJ (SR)   Coulomb (SR)
    3.92511e+01    2.89188e+02    2.82919e+03   -5.30096e+02   -4.46013e+03
      Potential    Kinetic En.   Total Energy    Temperature Pressure (bar)
   -1.94377e+03    1.77085e+03   -1.72928e+02    3.09343e+02    0.00000e+00
   Constr. rmsd  Constr.2 rmsd
    0.00000e+00    0.00000e+00

   Total Virial (kJ/mol)
    3.16281e+02    7.57907e+00    7.46338e+00
    7.57905e+00    3.38299e+02   -2.84317e+00
    7.46338e+00   -2.84320e+00    3.46189e+02

   Pressure (bar)
    0.00000e+00    0.00000e+00    0.00000e+00
    0.00000e+00    0.00000e+00    0.00000e+00
    0.00000e+00    0.00000e+00    0.00000e+00

   Total Dipole (D)
    1.91395e+00    1.05455e+02    1.23412e+02
